1_Yearly_simulation_with_lines_losses/ACN_Infrastructure_VLN_Node.Txt

LINE-GROUND and LINE-LINE VOLTAGES BY BUS & NODE

Bus               Node    VLN (kV)   Angle      pu     Base kV    Node-Node   VLL (kV)  Angle      pu

UTILITY_COMPANY . 1       5.7735 /_    0.0    48.077     0.208        1-2         10 /_   30.0    48.077
   -              2       5.7735 /_ -120.0    48.077     0.208        2-3         10 /_  -90.0    48.077
   -              3       5.7735 /_  120.0    48.077     0.208        3-1         10 /_  150.0    48.077
MAIN_SWITCH_PANEL 1      0.15993 /_    0.0    1.3317     0.208        1-2      0.277 /_   30.0    1.3317
   -              2      0.15993 /_ -120.0    1.3317     0.208        2-3      0.277 /_  -90.0    1.3317
   -              3      0.15993 /_  120.0    1.3317     0.208        3-1      0.277 /_  150.0    1.3317
DCFC ............ 1      0.15993 /_    0.0    1.3317     0.208        1-2      0.277 /_   30.0    1.3317
   -              2      0.15993 /_ -120.0    1.3317     0.208        2-3      0.277 /_  -90.0    1.3317
   -              3      0.15993 /_  120.0    1.3317     0.208        3-1      0.277 /_  150.0    1.3317
SWITCH_PANEL_1 .. 1     0.069282 /_  -30.0   0.57692     0.208        1-2       0.12 /_    0.0   0.57692
   -              2     0.069282 /_ -150.0   0.57692     0.208        2-3       0.12 /_ -120.0   0.57692
   -              3     0.069282 /_   90.0   0.57692     0.208        3-1       0.12 /_  120.0   0.57692
1 ............... 1     0.069282 /_  -30.0   0.57692     0.208        1-2       0.12 /_    0.0   0.57692
   -              2     0.069282 /_ -150.0   0.57692     0.208        2-3       0.12 /_ -120.0   0.57692
   -              3     0.069282 /_   90.0   0.57692     0.208        3-1       0.12 /_  120.0   0.57692
9 ............... 1     0.069282 /_  -30.0   0.57692     0.208        1-2       0.12 /_    0.0   0.57692
   -              2     0.069282 /_ -150.0   0.57692     0.208        2-3       0.12 /_ -120.0   0.57692
   -              3     0.069282 /_   90.0   0.57692     0.208        3-1       0.12 /_  120.0   0.57692
2X19 ............ 1     0.069282 /_  -30.0   0.57693     0.208        1-2       0.12 /_    0.0   0.57693
   -              2     0.069282 /_ -150.0   0.57693     0.208        2-3       0.12 /_ -120.0   0.57693
   -              3     0.069282 /_   90.0   0.57693     0.208        3-1       0.12 /_  120.0   0.57693
2 ............... 1     0.069282 /_  -30.0   0.57692     0.208        1-2       0.12 /_    0.0   0.57692
   -              2     0.069282 /_ -150.0   0.57692     0.208        2-3       0.12 /_ -120.0   0.57692
   -              3     0.069282 /_   90.0   0.57692     0.208        3-1       0.12 /_  120.0   0.57692
3 ............... 1     0.069282 /_  -30.0   0.57692     0.208        1-2       0.12 /_    0.0   0.57692
   -              2     0.069282 /_ -150.0   0.57692     0.208        2-3       0.12 /_ -120.0   0.57692
   -              3     0.069282 /_   90.0   0.57692     0.208        3-1       0.12 /_  120.0   0.57692
5 ............... 1     0.069282 /_  -30.0   0.57692     0.208        1-2       0.12 /_    0.0   0.57692
   -              2     0.069282 /_ -150.0   0.57692     0.208        2-3       0.12 /_ -120.0   0.57692
   -              3     0.069282 /_   90.0   0.57692     0.208        3-1       0.12 /_  120.0   0.57692
7 ............... 1     0.069282 /_  -30.0   0.57692     0.208        1-2       0.12 /_    0.0   0.57692
   -              2     0.069282 /_ -150.0   0.57692     0.208        2-3       0.12 /_ -120.0   0.57692
   -              3     0.069282 /_   90.0   0.57692     0.208        3-1       0.12 /_  120.0   0.57692
4 ............... 1     0.069282 /_  -30.0   0.57692     0.208        1-2       0.12 /_    0.0   0.57692
   -              2     0.069282 /_ -150.0   0.57692     0.208        2-3       0.12 /_ -120.0   0.57692
   -              3     0.069282 /_   90.0   0.57692     0.208        3-1       0.12 /_  120.0   0.57692
6 ............... 1     0.069282 /_  -30.0   0.57692     0.208        1-2       0.12 /_    0.0   0.57692
   -              2     0.069282 /_ -150.0   0.57692     0.208        2-3       0.12 /_ -120.0   0.57692
   -              3     0.069282 /_   90.0   0.57692     0.208        3-1       0.12 /_  120.0   0.57692
8 ............... 1     0.069282 /_  -30.0   0.57692     0.208        1-2       0.12 /_    0.0   0.57692
   -              2     0.069282 /_ -150.0   0.57692     0.208        2-3       0.12 /_ -120.0   0.57692
   -              3     0.069282 /_   90.0   0.57692     0.208        3-1       0.12 /_  120.0   0.57692
10 .............. 1     0.069282 /_  -30.0   0.57692     0.208        1-2       0.12 /_    0.0   0.57692
   -              2     0.069282 /_ -150.0   0.57692     0.208        2-3       0.12 /_ -120.0   0.57692
   -              3     0.069282 /_   90.0   0.57692     0.208        3-1       0.12 /_  120.0   0.57692
11 .............. 1     0.069282 /_  -30.0   0.57692     0.208        1-2       0.12 /_    0.0   0.57692
   -              2     0.069282 /_ -150.0   0.57692     0.208        2-3       0.12 /_ -120.0   0.57692
   -              3     0.069282 /_   90.0   0.57692     0.208        3-1       0.12 /_  120.0   0.57692
12 .............. 1     0.069282 /_  -30.0   0.57692     0.208        1-2       0.12 /_    0.0   0.57692
   -              2     0.069282 /_ -150.0   0.57692     0.208        2-3       0.12 /_ -120.0   0.57692
   -              3     0.069282 /_   90.0   0.57692     0.208        3-1       0.12 /_  120.0   0.57692
13 .............. 1     0.069282 /_  -30.0   0.57692     0.208        1-2       0.12 /_    0.0   0.57692
   -              2     0.069282 /_ -150.0   0.57692     0.208        2-3       0.12 /_ -120.0   0.57692
   -              3     0.069282 /_   90.0   0.57692     0.208        3-1       0.12 /_  120.0   0.57692
14 .............. 1     0.069282 /_  -30.0   0.57692     0.208        1-2       0.12 /_    0.0   0.57692
   -              2     0.069282 /_ -150.0   0.57692     0.208        2-3       0.12 /_ -120.0   0.57692
   -              3     0.069282 /_   90.0   0.57692     0.208        3-1       0.12 /_  120.0   0.57692
15 .............. 1     0.069282 /_  -30.0   0.57692     0.208        1-2       0.12 /_    0.0   0.57692
   -              2     0.069282 /_ -150.0   0.57692     0.208        2-3       0.12 /_ -120.0   0.57692
   -              3     0.069282 /_   90.0   0.57692     0.208        3-1       0.12 /_  120.0   0.57692
16 .............. 1     0.069282 /_  -30.0   0.57692     0.208        1-2       0.12 /_    0.0   0.57692
   -              2     0.069282 /_ -150.0   0.57692     0.208        2-3       0.12 /_ -120.0   0.57692
   -              3     0.069282 /_   90.0   0.57692     0.208        3-1       0.12 /_  120.0   0.57692
39 .............. 1     0.069283 /_  -30.0   0.57693     0.208        1-2       0.12 /_    0.0   0.57693
   -              2     0.069283 /_ -150.0   0.57693     0.208        2-3       0.12 /_ -120.0   0.57693
   -              3     0.069283 /_   90.0   0.57693     0.208        3-1       0.12 /_  120.0   0.57693
17 .............. 1     0.069283 /_  -30.0   0.57693     0.208        1-2       0.12 /_    0.0   0.57693
   -              2     0.069283 /_ -150.0   0.57693     0.208        2-3       0.12 /_ -120.0   0.57693
   -              3     0.069283 /_   90.0   0.57693     0.208        3-1       0.12 /_  120.0   0.57693
18 .............. 1     0.069283 /_  -30.0   0.57693     0.208        1-2       0.12 /_    0.0   0.57693
   -              2     0.069283 /_ -150.0   0.57693     0.208        2-3       0.12 /_ -120.0   0.57693
   -              3     0.069283 /_   90.0   0.57693     0.208        3-1       0.12 /_  120.0   0.57693
19 .............. 1     0.069283 /_  -30.0   0.57693     0.208        1-2       0.12 /_    0.0   0.57693
   -              2     0.069283 /_ -150.0   0.57693     0.208        2-3       0.12 /_ -120.0   0.57693
   -              3     0.069283 /_   90.0   0.57693     0.208        3-1       0.12 /_  120.0   0.57693
20 .............. 1     0.069283 /_  -30.0   0.57693     0.208        1-2       0.12 /_    0.0   0.57693
   -              2     0.069283 /_ -150.0   0.57693     0.208        2-3       0.12 /_ -120.0   0.57693
   -              3     0.069283 /_   90.0   0.57693     0.208        3-1       0.12 /_  120.0   0.57693
21 .............. 1     0.069283 /_  -30.0   0.57693     0.208        1-2       0.12 /_    0.0   0.57693
   -              2     0.069283 /_ -150.0   0.57693     0.208        2-3       0.12 /_ -120.0   0.57693
   -              3     0.069283 /_   90.0   0.57693     0.208        3-1       0.12 /_  120.0   0.57693
25 .............. 1     0.069283 /_  -30.0   0.57693     0.208        1-2       0.12 /_    0.0   0.57693
   -              2     0.069283 /_ -150.0   0.57693     0.208        2-3       0.12 /_ -120.0   0.57693
   -              3     0.069283 /_   90.0   0.57693     0.208        3-1       0.12 /_  120.0   0.57693
29 .............. 1     0.069283 /_  -30.0   0.57693     0.208        1-2       0.12 /_    0.0   0.57693
   -              2     0.069283 /_ -150.0   0.57693     0.208        2-3       0.12 /_ -120.0   0.57693
   -              3     0.069283 /_   90.0   0.57693     0.208        3-1       0.12 /_  120.0   0.57693
33 .............. 1     0.069283 /_  -30.0   0.57693     0.208        1-2       0.12 /_    0.0   0.57693
   -              2     0.069283 /_ -150.0   0.57693     0.208        2-3       0.12 /_ -120.0   0.57693
   -              3     0.069283 /_   90.0   0.57693     0.208        3-1       0.12 /_  120.0   0.57693
22 .............. 1     0.069283 /_  -30.0   0.57693     0.208        1-2       0.12 /_    0.0   0.57693
   -              2     0.069283 /_ -150.0   0.57693     0.208        2-3       0.12 /_ -120.0   0.57693
   -              3     0.069283 /_   90.0   0.57693     0.208        3-1       0.12 /_  120.0   0.57693
23 .............. 1     0.069283 /_  -30.0   0.57693     0.208        1-2       0.12 /_    0.0   0.57693
   -              2     0.069283 /_ -150.0   0.57693     0.208        2-3       0.12 /_ -120.0   0.57693
   -              3     0.069283 /_   90.0   0.57693     0.208        3-1       0.12 /_  120.0   0.57693
24 .............. 1     0.069283 /_  -30.0   0.57693     0.208        1-2       0.12 /_    0.0   0.57693
   -              2     0.069283 /_ -150.0   0.57693     0.208        2-3       0.12 /_ -120.0   0.57693
   -              3     0.069283 /_   90.0   0.57693     0.208        3-1       0.12 /_  120.0   0.57693
26 .............. 1     0.069283 /_  -30.0   0.57693     0.208        1-2       0.12 /_    0.0   0.57693
   -              2     0.069283 /_ -150.0   0.57693     0.208        2-3       0.12 /_ -120.0   0.57693
   -              3     0.069283 /_   90.0   0.57693     0.208        3-1       0.12 /_  120.0   0.57693
27 .............. 1     0.069283 /_  -30.0   0.57693     0.208        1-2       0.12 /_    0.0   0.57693
   -              2     0.069283 /_ -150.0   0.57693     0.208        2-3       0.12 /_ -120.0   0.57693
   -              3     0.069283 /_   90.0   0.57693     0.208        3-1       0.12 /_  120.0   0.57693
28 .............. 1     0.069283 /_  -30.0   0.57693     0.208        1-2       0.12 /_    0.0   0.57693
   -              2     0.069283 /_ -150.0   0.57693     0.208        2-3       0.12 /_ -120.0   0.57693
   -              3     0.069283 /_   90.0   0.57693     0.208        3-1       0.12 /_  120.0   0.57693
30 .............. 1     0.069283 /_  -30.0   0.57693     0.208        1-2       0.12 /_    0.0   0.57693
   -              2     0.069283 /_ -150.0   0.57693     0.208        2-3       0.12 /_ -120.0   0.57693
   -              3     0.069283 /_   90.0   0.57693     0.208        3-1       0.12 /_  120.0   0.57693
31 .............. 1     0.069283 /_  -30.0   0.57693     0.208        1-2       0.12 /_    0.0   0.57693
   -              2     0.069283 /_ -150.0   0.57693     0.208        2-3       0.12 /_ -120.0   0.57693
   -              3     0.069283 /_   90.0   0.57693     0.208        3-1       0.12 /_  120.0   0.57693
32 .............. 1     0.069283 /_  -30.0   0.57693     0.208        1-2       0.12 /_    0.0   0.57693
   -              2     0.069283 /_ -150.0   0.57693     0.208        2-3       0.12 /_ -120.0   0.57693
   -              3     0.069283 /_   90.0   0.57693     0.208        3-1       0.12 /_  120.0   0.57693
34 .............. 1     0.069283 /_  -30.0   0.57693     0.208        1-2       0.12 /_    0.0   0.57693
   -              2     0.069283 /_ -150.0   0.57693     0.208        2-3       0.12 /_ -120.0   0.57693
   -              3     0.069283 /_   90.0   0.57693     0.208        3-1       0.12 /_  120.0   0.57693
35 .............. 1     0.069283 /_  -30.0   0.57693     0.208        1-2       0.12 /_    0.0   0.57693
   -              2     0.069283 /_ -150.0   0.57693     0.208        2-3       0.12 /_ -120.0   0.57693
   -              3     0.069283 /_   90.0   0.57693     0.208        3-1       0.12 /_  120.0   0.57693
38 .............. 1     0.069283 /_  -30.0   0.57693     0.208        1-2       0.12 /_    0.0   0.57693
   -              2     0.069283 /_ -150.0   0.57693     0.208        2-3       0.12 /_ -120.0   0.57693
   -              3     0.069283 /_   90.0   0.57693     0.208        3-1       0.12 /_  120.0   0.57693
37 .............. 1     0.069283 /_  -30.0   0.57693     0.208        1-2       0.12 /_    0.0   0.57693
   -              2     0.069283 /_ -150.0   0.57693     0.208        2-3       0.12 /_ -120.0   0.57693
   -              3     0.069283 /_   90.0   0.57693     0.208        3-1       0.12 /_  120.0   0.57693
36 .............. 1     0.069283 /_  -30.0   0.57693     0.208        1-2       0.12 /_    0.0   0.57693
   -              2     0.069283 /_ -150.0   0.57693     0.208        2-3       0.12 /_ -120.0   0.57693
   -              3     0.069283 /_   90.0   0.57693     0.208        3-1       0.12 /_  120.0   0.57693
40 .............. 1     0.069283 /_  -30.0   0.57693     0.208        1-2       0.12 /_    0.0   0.57693
   -              2     0.069283 /_ -150.0   0.57693     0.208        2-3       0.12 /_ -120.0   0.57693
   -              3     0.069283 /_   90.0   0.57693     0.208        3-1       0.12 /_  120.0   0.57693
44 .............. 1     0.069283 /_  -30.0   0.57694     0.208        1-2       0.12 /_    0.0   0.57694
   -              2     0.069283 /_ -150.0   0.57694     0.208        2-3       0.12 /_ -120.0   0.57694
   -              3     0.069283 /_   90.0   0.57694     0.208        3-1       0.12 /_  120.0   0.57694
48 .............. 1     0.069284 /_  -30.0   0.57694     0.208        1-2       0.12 /_    0.0   0.57694
   -              2     0.069284 /_ -150.0   0.57694     0.208        2-3       0.12 /_ -120.0   0.57694
   -              3     0.069284 /_   90.0   0.57694     0.208        3-1       0.12 /_  120.0   0.57694
52 .............. 1     0.069284 /_  -30.0   0.57694     0.208        1-2       0.12 /_    0.0   0.57694
   -              2     0.069284 /_ -150.0   0.57694     0.208        2-3       0.12 /_ -120.0   0.57694
   -              3     0.069284 /_   90.0   0.57694     0.208        3-1       0.12 /_  120.0   0.57694
41 .............. 1     0.069283 /_  -30.0   0.57693     0.208        1-2       0.12 /_    0.0   0.57693
   -              2     0.069283 /_ -150.0   0.57693     0.208        2-3       0.12 /_ -120.0   0.57693
   -              3     0.069283 /_   90.0   0.57693     0.208        3-1       0.12 /_  120.0   0.57693
42 .............. 1     0.069283 /_  -30.0   0.57693     0.208        1-2       0.12 /_    0.0   0.57693
   -              2     0.069283 /_ -150.0   0.57693     0.208        2-3       0.12 /_ -120.0   0.57693
   -              3     0.069283 /_   90.0   0.57693     0.208        3-1       0.12 /_  120.0   0.57693
43 .............. 1     0.069283 /_  -30.0   0.57693     0.208        1-2       0.12 /_    0.0   0.57693
   -              2     0.069283 /_ -150.0   0.57693     0.208        2-3       0.12 /_ -120.0   0.57693
   -              3     0.069283 /_   90.0   0.57693     0.208        3-1       0.12 /_  120.0   0.57693
45 .............. 1     0.069283 /_  -30.0   0.57694     0.208        1-2       0.12 /_    0.0   0.57694
   -              2     0.069283 /_ -150.0   0.57694     0.208        2-3       0.12 /_ -120.0   0.57694
   -              3     0.069283 /_   90.0   0.57694     0.208        3-1       0.12 /_  120.0   0.57694
46 .............. 1     0.069284 /_  -30.0   0.57694     0.208        1-2       0.12 /_    0.0   0.57694
   -              2     0.069284 /_ -150.0   0.57694     0.208        2-3       0.12 /_ -120.0   0.57694
   -              3     0.069284 /_   90.0   0.57694     0.208        3-1       0.12 /_  120.0   0.57694
47 .............. 1     0.069284 /_  -30.0   0.57694     0.208        1-2       0.12 /_    0.0   0.57694
   -              2     0.069284 /_ -150.0   0.57694     0.208        2-3       0.12 /_ -120.0   0.57694
   -              3     0.069284 /_   90.0   0.57694     0.208        3-1       0.12 /_  120.0   0.57694
53 .............. 1     0.069284 /_  -30.0   0.57694     0.208        1-2       0.12 /_    0.0   0.57694
   -              2     0.069284 /_ -150.0   0.57694     0.208        2-3       0.12 /_ -120.0   0.57694
   -              3     0.069284 /_   90.0   0.57694     0.208        3-1       0.12 /_  120.0   0.57694
54 .............. 1     0.069284 /_  -30.0   0.57694     0.208        1-2       0.12 /_    0.0   0.57694
   -              2     0.069284 /_ -150.0   0.57694     0.208        2-3       0.12 /_ -120.0   0.57694
   -              3     0.069284 /_   90.0   0.57694     0.208        3-1       0.12 /_  120.0   0.57694
49 .............. 1     0.069284 /_  -30.0   0.57694     0.208        1-2       0.12 /_    0.0   0.57694
   -              2     0.069284 /_ -150.0   0.57694     0.208        2-3       0.12 /_ -120.0   0.57694
   -              3     0.069284 /_   90.0   0.57694     0.208        3-1       0.12 /_  120.0   0.57694
50 .............. 1     0.069284 /_  -30.0   0.57694     0.208        1-2       0.12 /_    0.0   0.57694
   -              2     0.069284 /_ -150.0   0.57694     0.208        2-3       0.12 /_ -120.0   0.57694
   -              3     0.069284 /_   90.0   0.57694     0.208        3-1       0.12 /_  120.0   0.57694
51 .............. 1     0.069284 /_  -30.0   0.57694     0.208        1-2       0.12 /_    0.0   0.57694
   -              2     0.069284 /_ -150.0   0.57694     0.208        2-3       0.12 /_ -120.0   0.57694
   -              3     0.069284 /_   90.0   0.57694     0.208        3-1       0.12 /_  120.0   0.57694
SWITCH_PANEL_2 .. 1     0.069282 /_  -30.0   0.57692     0.208        1-2       0.12 /_    0.0   0.57692
   -              2     0.069282 /_ -150.0   0.57692     0.208        2-3       0.12 /_ -120.0   0.57692
   -              3     0.069282 /_   90.0   0.57692     0.208        3-1       0.12 /_  120.0   0.57692
